Circuit: * Z:\home\ivan\Git\Electronica-proof-of-concept\Simulación\Power_Control\Circuit.asc

Direct Newton iteration for .op point succeeded.

Date: Thu Aug 16 20:11:57 2018
Total elapsed time: 0.448 seconds.

tnom = 27
temp = 27
method = modified trap
totiter = 160031
traniter = 160024
tranpoints = 80013
accept = 48020
rejected = 31993
matrix size = 5
fillins = 0
solver = Normal
Matrix Compiler1: 132 bytes object code size  0.6/0.5/[0.5]
Matrix Compiler2: 335 bytes object code size  0.5/0.6/[0.6]

