Circuit: * Z:\home\ivan\Git\Electronica-proof-of-concept\Simulación\Power_Control\Draft1.asc

Direct Newton iteration for .op point succeeded.

Date: Thu Aug 23 18:02:03 2018
Total elapsed time: 0.075 seconds.

tnom = 27
temp = 27
method = modified trap
totiter = 9034
traniter = 9030
tranpoints = 4015
accept = 2424
rejected = 1591
matrix size = 5
fillins = 0
solver = Normal
Matrix Compiler1: 204 bytes object code size  0.6/0.6/[0.5]
Matrix Compiler2: 311 bytes object code size  0.6/0.6/[0.5]

